[General]
# Default settings for all configurations
sim-time-limit = 1000s

# Configuration for the original network
[Config KyberNetwork]
network = KyberNetwork
description = "Simulation using the KyberNetwork."

# Configuration for the new KyberEthernetNetwork
[Config KyberEthernetNetwork]
network = KyberEthernetNetwork
description = "Simulation using the KyberEthernetNetwork."
