[General]
network = KyberNetwork
sim-time-limit = 1000s